************************************************************************
* auCdl Netlist:
*
* Library Name: SMIC_MEMORY
* Top Cell Name: S013LLLPSP_X256Y8D8
* Version:  v0p2
* View Name:     schematic
* Netlisted on:  Thu Sep 19 15:16:10 ICT 2024
************************************************************************
*.BIPOLAR
*.RESI = 2000
*.RESVAL
*.CAPVAL
*.DIOPERI
*.DIOAREA
*.EQUATION
*.SCALE METER
*.MEGA
.PARAM


************************************************************************
* Library Name: SMIC_MEMORY
* Cell Name:    S013LLLPSP_X256Y8D8_S013EELPSP_LEAFCELL_TieH
* View Name:    schematic
************************************************************************

.SUBCKT S013LLLPSP_X256Y8D8_S013EELPSP_LEAFCELL_TieH Tie_high VDDP VSS
MN18 net15 net15 VSS VSS N15LL W=2u L=130.00n m=1
MP18 Tie_high net15 VDDP VDDP P15LL W=4u L=130.00n m=1
.ENDS

************************************************************************
* Library Name: SMIC_MEMORY
* Cell Name:    S013LLLPSP_X256Y8D8_S013EELPSP_LEAFCELL_TieL
* View Name:    schematic
************************************************************************

.SUBCKT S013LLLPSP_X256Y8D8_S013EELPSP_LEAFCELL_TieL TieL VDDP VSS
MN18 TieL net15 VSS VSS N15LL W=4u L=130.00n m=1
MP18 net15 net15 VDDP VDDP P15LL W=2u L=130.00n m=1
.ENDS

************************************************************************
* Library Name: SMIC_MEMORY
* Cell Name:    S013LLLPSP_X256Y8D8_inv
* View Name:    schematic
************************************************************************

.SUBCKT S013LLLPSP_X256Y8D8_inv A VDDP VSS Y pw=1u pl=180n nw=1u nl=180n
MM0 Y A VSS VSS N15LL W=nw L=nl m=1
MM1 Y A VDDP VDDP P15LL W=pw L=pl m=1
.ENDS

************************************************************************
* Library Name: SMIC_MEMORY
* Cell Name:    S013LLLPSP_X256Y8D8_S013EELPSP_LEAFCELL_YMUXB
* View Name:    schematic
************************************************************************

.SUBCKT S013LLLPSP_X256Y8D8_S013EELPSP_LEAFCELL_YMUXB BL BLX DBA DBAX DIN DINX VDDP VSS YS
XI7 YS VDDP VSS net81 / S013LLLPSP_X256Y8D8_inv pl=130n pw=800n nl=130n nw=800n
XI4 net81 VDDP VSS SL / S013LLLPSP_X256Y8D8_inv pl=130.00n pw=1.2u nl=130.00n nw=800.0n
MN0 BL DINX net58 VSS N15LL W=2.8u L=130.00n m=1
MN2 BLX DIN net58 VSS N15LL W=2.8u L=130.00n m=1
MN3 net58 SL VSS VSS N15LL W=2.8u L=130.00n m=1
MP0 BL SL VDDP VDDP P15LL W=1u L=130.00n m=1
MP1 BLX SL VDDP VDDP P15LL W=1u L=130.00n m=1
MP2 BL SL BLX VDDP P15LL W=1u L=130.00n m=1
MP3 DBA net81 BL VDDP P15LL W=1.2u L=130.00n m=1
MP4 DBAX net81 BLX VDDP P15LL W=1.2u L=130.00n m=1
.ENDS

************************************************************************
* Library Name: SMIC_MEMORY
* Cell Name:    S013LLLPSP_X256Y8D8_S013EELPSP_LEAFCELL_YMUX8
* View Name:    schematic
************************************************************************

.SUBCKT S013LLLPSP_X256Y8D8_S013EELPSP_LEAFCELL_YMUX8 BL[7] BL[6] BL[5] BL[4] BL[3] BL[2] BL[1] BL[0] BLX[7] BLX[6]
+BLX[5] BLX[4] BLX[3] BLX[2] BLX[1] BLX[0] DB DBX DIN DINX
+VDDP VSS YS[7] YS[6] YS[5] YS[4] YS[3] YS[2] YS[1] YS[0]
XI11 BL[4] BLX[4] DB DBX DIN DINX VDDP VSS YS[4] / S013LLLPSP_X256Y8D8_S013EELPSP_LEAFCELL_YMUXB
XI12 BL[5] BLX[5] DB DBX DIN DINX VDDP VSS YS[5] / S013LLLPSP_X256Y8D8_S013EELPSP_LEAFCELL_YMUXB
XI13 BL[6] BLX[6] DB DBX DIN DINX VDDP VSS YS[6] / S013LLLPSP_X256Y8D8_S013EELPSP_LEAFCELL_YMUXB
XI14 BL[7] BLX[7] DB DBX DIN DINX VDDP VSS YS[7] / S013LLLPSP_X256Y8D8_S013EELPSP_LEAFCELL_YMUXB
XI3 BL[3] BLX[3] DB DBX DIN DINX VDDP VSS YS[3] / S013LLLPSP_X256Y8D8_S013EELPSP_LEAFCELL_YMUXB
XI2 BL[2] BLX[2] DB DBX DIN DINX VDDP VSS YS[2] / S013LLLPSP_X256Y8D8_S013EELPSP_LEAFCELL_YMUXB
XI1 BL[1] BLX[1] DB DBX DIN DINX VDDP VSS YS[1] / S013LLLPSP_X256Y8D8_S013EELPSP_LEAFCELL_YMUXB
XI0 BL[0] BLX[0] DB DBX DIN DINX VDDP VSS YS[0] / S013LLLPSP_X256Y8D8_S013EELPSP_LEAFCELL_YMUXB
.ENDS

************************************************************************
* Library Name: SMIC_MEMORY
* Cell Name:    S013LLLPSP_X256Y8D8_nand2
* View Name:    schematic
************************************************************************

.SUBCKT S013LLLPSP_X256Y8D8_nand2 A B VDDP VSS Y pw=1u pl=180.0n nw=1u nl=180.0n
MM3 Y A net26 VSS N15LL W=nw L=nl m=1
MM0 net26 B VSS VSS N15LL W=nw L=nl m=1
MM2 Y B VDDP VDDP P15LL W=pw L=pl m=1
MM1 Y A VDDP VDDP P15LL W=pw L=pl m=1
.ENDS

************************************************************************
* Library Name: SMIC_MEMORY
* Cell Name:    S013LLLPSP_X256Y8D8_S013EELPSP_LEAFCELL_SA8
* View Name:    schematic
************************************************************************

.SUBCKT S013LLLPSP_X256Y8D8_S013EELPSP_LEAFCELL_SA8 DB DBX DOUT VDDP VSS ck1 ck4
MN4 net85 ck3 net94 VSS N15LL W=2u L=130.00n m=1
MN0 DX D net85 VSS N15LL W=6u L=200.0n m=1
MN1 D DX net85 VSS N15LL W=6u L=200.0n m=1
MN3 net94 ck6 VSS VSS N15LL W=2u L=130.00n m=1
MP0 DBX ck6 VDDP VDDP P15LL W=1u L=130.00n m=1
MP1 DB ck6 VDDP VDDP P15LL W=1u L=130.00n m=1
MP2 DB ck6 DBX VDDP P15LL W=1u L=130.00n m=1
MP3 D close DB VDDP P15LL W=2.8u L=130.00n m=1
MP4 DX close DBX VDDP P15LL W=2.8u L=130.00n m=1
MP7 DX D VDDP VDDP P15LL W=1.6u L=200.0n m=1
MP8 D DX VDDP VDDP P15LL W=1.6u L=200.0n m=1
XI53 DX DOUTB VDDP VSS DOUTBB / S013LLLPSP_X256Y8D8_nand2 pl=130.00n pw=1u nl=130.00n nw=1u
XI54 DOUTBB D VDDP VSS DOUTB / S013LLLPSP_X256Y8D8_nand2 pl=130.00n pw=1u nl=130.00n nw=1u
XI74 ck1 ck4 VDDP VSS net137 / S013LLLPSP_X256Y8D8_nand2 pl=130.00n pw=800.0n nl=130.00n nw=800.0n
XI73 net156 VDDP VSS ck6 / S013LLLPSP_X256Y8D8_inv pl=130.00n pw=3.2u nl=130.00n nw=1.6u
XI71 net152 VDDP VSS ck3 / S013LLLPSP_X256Y8D8_inv pl=130.00n pw=2u nl=130.00n nw=1.0u
XI77 DOUTB VDDP VSS DOUT / S013LLLPSP_X256Y8D8_inv pl=130.00n pw=3u nl=130.00n nw=1.5u
XI70 ck1 VDDP VSS net152 / S013LLLPSP_X256Y8D8_inv pl=130.00n pw=800.0n nl=130.00n nw=800.0n
XI72 ck4 VDDP VSS net156 / S013LLLPSP_X256Y8D8_inv pl=130.00n pw=1.6u nl=130.00n nw=800.0n
XI75 net137 VDDP VSS close / S013LLLPSP_X256Y8D8_inv pl=130.00n pw=2u nl=130.00n nw=1.0u
.ENDS

************************************************************************
* Library Name: SMIC_MEMORY
* Cell Name:    S013LLLPSP_X256Y8D8_tgate
* View Name:    schematic
************************************************************************

.SUBCKT S013LLLPSP_X256Y8D8_tgate A EN ENX VDDP VSS Y pw=1u pl=180n nw=1u nl=180n
M0 A EN Y VSS N15LL W=nw L=nl m=1
M1 A ENX Y VDDP P15LL W=pw L=pl m=1
.ENDS

************************************************************************
* Library Name: SMIC_MEMORY
* Cell Name:    S013LLLPSP_X256Y8D8_S013EELPSP_LEAFCELL_DATAIN
* View Name:    schematic
************************************************************************

.SUBCKT S013LLLPSP_X256Y8D8_S013EELPSP_LEAFCELL_DATAIN BWEN CLK CLKX D DATA DX VDDP VSS WE
XI136 WE net122 VDDP VSS net77 / S013LLLPSP_X256Y8D8_nand2 pl=130.00n pw=800.0n nl=130.00n nw=800.0n
XI4 net142 net126 VDDP VSS net82 / S013LLLPSP_X256Y8D8_nand2 pl=130.00n pw=800.0n nl=130.00n nw=1u
XI3 net154 net126 VDDP VSS net87 / S013LLLPSP_X256Y8D8_nand2 pl=130.00n pw=800.0n nl=130.00n nw=1u
XI21 net114 CLKX CLK VDDP VSS BLATCH / S013LLLPSP_X256Y8D8_tgate pl=130.00n pw=1.4u nl=130.00n  nw=1.4u
XI5 net146 CLKX CLK VDDP VSS DLATCH / S013LLLPSP_X256Y8D8_tgate pl=130.00n pw=1.4u nl=130.00n  nw=1.4u
XI39 BWEN VDDP VSS net0206 / S013LLLPSP_X256Y8D8_inv pl=130.00n pw=800.0n nl=130.00n nw=800.0n
XI37 net0206 VDDP VSS net0207 / S013LLLPSP_X256Y8D8_inv pl=300.0n pw=800.0n nl=300.0n nw=800.0n
XI31 net0100 VDDP VSS net0104 / S013LLLPSP_X256Y8D8_inv pl=300.0n pw=800.0n nl=300.0n nw=800.0n
XI35 net0207 VDDP VSS net0120 / S013LLLPSP_X256Y8D8_inv pl=300.0n pw=800.0n nl=300.0n nw=800.0n
XI34 DATA VDDP VSS net0100 / S013LLLPSP_X256Y8D8_inv pl=130.00n pw=800.0n nl=130.00n nw=800.0n
XI30 net0112 VDDP VSS net0108 / S013LLLPSP_X256Y8D8_inv pl=300.0n pw=800.0n nl=300.0n nw=800.0n
XI29 net0104 VDDP VSS net0112 / S013LLLPSP_X256Y8D8_inv pl=300.0n pw=800.0n nl=300.0n nw=800.0n
XI28 net0108 VDDP VSS net102 / S013LLLPSP_X256Y8D8_inv pl=130.00n pw=800.0n nl=130.00n nw=800.0n
XI322 net130 VDDP VSS net106 / S013LLLPSP_X256Y8D8_inv pl=300.0n pw=800.0n nl=300.0n nw=800.0n
XI321 net106 VDDP VSS net110 / S013LLLPSP_X256Y8D8_inv pl=300.0n pw=800.0n nl=300.0n nw=800.0n
XI320 net110 VDDP VSS net114 / S013LLLPSP_X256Y8D8_inv pl=130.00n pw=1.4u nl=130.00n nw=1.4u
XI22 net122 VDDP VSS BLATCH / S013LLLPSP_X256Y8D8_inv pl=300.0n pw=250.00n nl=600.0n nw=250.00n
XI23 BLATCH VDDP VSS net122 / S013LLLPSP_X256Y8D8_inv pl=130.00n pw=800.0n nl=130.00n nw=800.0n
XI143 net77 VDDP VSS net126 / S013LLLPSP_X256Y8D8_inv pl=130.00n pw=1.6u nl=130.00n nw=1.0u
XI323 net0146 VDDP VSS net130 / S013LLLPSP_X256Y8D8_inv pl=130.00n pw=800.0n nl=130.00n nw=800.0n
XI19 net87 VDDP VSS DX / S013LLLPSP_X256Y8D8_inv pl=130.00n pw=1.44u nl=130.00n nw=720.00n
XI20 net82 VDDP VSS D / S013LLLPSP_X256Y8D8_inv pl=130.00n pw=1.44u nl=130.00n nw=720.00n
XI15 net154 VDDP VSS net142 / S013LLLPSP_X256Y8D8_inv pl=130.00n pw=800.0n nl=130.00n nw=800.0n
XI36 net0120 VDDP VSS net0146 / S013LLLPSP_X256Y8D8_inv pl=300.0n pw=800.0n nl=300.0n nw=800.0n
XI27 net162 VDDP VSS net146 / S013LLLPSP_X256Y8D8_inv pl=130.00n pw=1.4u nl=130.00n nw=1.4u
XI9 net154 VDDP VSS DLATCH / S013LLLPSP_X256Y8D8_inv pl=300.0n pw=250.00n nl=600.0n nw=250.00n
XI7 DLATCH VDDP VSS net154 / S013LLLPSP_X256Y8D8_inv pl=130.00n pw=1.6u nl=130.00n nw=1.0u
XI25 net102 VDDP VSS net158 / S013LLLPSP_X256Y8D8_inv pl=300.0n pw=800.0n nl=300.0n nw=800.0n
XI26 net158 VDDP VSS net162 / S013LLLPSP_X256Y8D8_inv pl=300.0n pw=800.0n nl=300.0n nw=800.0n
.ENDS

************************************************************************
* Library Name: SMIC_MEMORY
* Cell Name:    S013LLLPSP_X256Y8D8_S013EELPSP_LEAFCELL_YMX8SAWR_BW
* View Name:    schematic
************************************************************************

.SUBCKT S013LLLPSP_X256Y8D8_S013EELPSP_LEAFCELL_YMX8SAWR_BW BL[7] BL[6] BL[5] BL[4] BL[3] BL[2] BL[1] BL[0] BLX[7] BLX[6]
+BLX[5] BLX[4] BLX[3] BLX[2] BLX[1] BLX[0] BWEN CLK CLKX DATA
+DOUT SACK1 SACK4 VDDP VSS WE YX[7] YX[6] YX[5] YX[4]
+YX[3] YX[2] YX[1] YX[0]
XIYMUX4 BL[7] BL[6] BL[5] BL[4] BL[3] BL[2] BL[1] BL[0] BLX[7] BLX[6] BLX[5]  BLX[4] BLX[3] BLX[2] BLX[1] BLX[0] DB DBX DIN DINX VDDP VSS net86[7] net86[6]  net86[5] net86[4] net86[3] net86[2] net86[1] net86[0] /  S013LLLPSP_X256Y8D8_S013EELPSP_LEAFCELL_YMUX8
XISA DB DBX DOUT VDDP VSS SACK1 SACK4 / S013LLLPSP_X256Y8D8_S013EELPSP_LEAFCELL_SA8
MN1 BWEN VSS VSS VSS N15LL W=300.0n L=130.00n m=1
MN3 DATA VSS VSS VSS N15LL W=300.0n L=130.00n m=1
MP1 BWEN VDDP VDDP VDDP P15LL W=300.0n L=130.00n m=1
MP3 DATA VDDP VDDP VDDP P15LL W=300.0n L=130.00n m=1
XI14[7] YX[7] VDDP VSS net86[7] / S013LLLPSP_X256Y8D8_inv pl=130.00n pw=800.0n nl=130.00n nw=800.0n
XI14[6] YX[6] VDDP VSS net86[6] / S013LLLPSP_X256Y8D8_inv pl=130.00n pw=800.0n nl=130.00n nw=800.0n
XI14[5] YX[5] VDDP VSS net86[5] / S013LLLPSP_X256Y8D8_inv pl=130.00n pw=800.0n nl=130.00n nw=800.0n
XI14[4] YX[4] VDDP VSS net86[4] / S013LLLPSP_X256Y8D8_inv pl=130.00n pw=800.0n nl=130.00n nw=800.0n
XI14[3] YX[3] VDDP VSS net86[3] / S013LLLPSP_X256Y8D8_inv pl=130.00n pw=800.0n nl=130.00n nw=800.0n
XI14[2] YX[2] VDDP VSS net86[2] / S013LLLPSP_X256Y8D8_inv pl=130.00n pw=800.0n nl=130.00n nw=800.0n
XI14[1] YX[1] VDDP VSS net86[1] / S013LLLPSP_X256Y8D8_inv pl=130.00n pw=800.0n nl=130.00n nw=800.0n
XI14[0] YX[0] VDDP VSS net86[0] / S013LLLPSP_X256Y8D8_inv pl=130.00n pw=800.0n nl=130.00n nw=800.0n
XIDATAIN BWEN CLK CLKX DIN DATA DINX VDDP VSS WE / S013LLLPSP_X256Y8D8_S013EELPSP_LEAFCELL_DATAIN
.ENDS

************************************************************************
* Library Name: SMIC_MEMORY
* Cell Name:    S013LLLPSP_X256Y8D8_BITCELL
* View Name:    schematic
************************************************************************

.SUBCKT S013LLLPSP_X256Y8D8_BITCELL B BX VDDC VSS WL1
MM2 BX WL1 BCN VSS NPG W=150.000n L=175.00n m=1
MM3 B WL1 BC VSS NPG W=150.000n L=175.00n m=1
MM0 BCN BC VSS VSS NPD W=220.00n L=130.00n m=1
MM1 BC BCN VSS VSS NPD W=220.00n L=130.00n m=1
MM5 BCN BC VDDC VDDC PL W=160.000n L=150.00n m=1
MM6 BC BCN VDDC VDDC PL W=160.000n L=150.00n m=1
.ENDS

************************************************************************
* Library Name: SMIC_MEMORY
* Cell Name:    S013LLLPSP_X256Y8D8_S013EELPSP_bitcellredundance2x2
* View Name:    schematic
************************************************************************

.SUBCKT S013LLLPSP_X256Y8D8_S013EELPSP_bitcellredundance2x2 B[1] B[0] BX[1] BX[0] RWL[1] RWL[0] VDDC VSS
XIBITCELL_0 B[1] BX[1] VDDC VSS RWL[1] S013LLLPSP_X256Y8D8_BITCELL
XIBITCELL_1 B[0] BX[0] VDDC VSS RWL[1] S013LLLPSP_X256Y8D8_BITCELL
XIBITCELL_2 B[1] BX[1] VDDC VSS RWL[0] S013LLLPSP_X256Y8D8_BITCELL
XIBITCELL_3 B[0] BX[0] VDDC VSS RWL[0] S013LLLPSP_X256Y8D8_BITCELL
.ENDS

************************************************************************
* Library Name: SMIC_MEMORY
* Cell Name:    S013LLLPSP_X256Y8D8_S013EELPSP_bitcell2x2
* View Name:    schematic
************************************************************************

.SUBCKT S013LLLPSP_X256Y8D8_S013EELPSP_bitcell2x2 B[1] B[0] BX[1] BX[0] VDDC VSS WL[1] WL[0]
XIBITCELL_0 BX[1] B[1] VDDC VSS WL[1] S013LLLPSP_X256Y8D8_BITCELL
XIBITCELL_1 BX[0] B[0] VDDC VSS WL[1] S013LLLPSP_X256Y8D8_BITCELL
XIBITCELL_2 BX[1] B[1] VDDC VSS WL[0] S013LLLPSP_X256Y8D8_BITCELL
XIBITCELL_3 BX[0] B[0] VDDC VSS WL[0] S013LLLPSP_X256Y8D8_BITCELL
.ENDS

************************************************************************
* Library Name: SMIC_MEMORY
* Cell Name:    S013LLLPSP_X256Y8D8_S013EELPSP_bitcell256x2
* View Name:    schematic
************************************************************************

.SUBCKT S013LLLPSP_X256Y8D8_S013EELPSP_bitcell256x2 BL[1] BL[0] BLX[1] BLX[0] VDDC VSS WL[255] WL[254] WL[253] WL[252]
+WL[251] WL[250] WL[249] WL[248] WL[247] WL[246] WL[245] WL[244] WL[243] WL[242]
+WL[241] WL[240] WL[239] WL[238] WL[237] WL[236] WL[235] WL[234] WL[233] WL[232]
+WL[231] WL[230] WL[229] WL[228] WL[227] WL[226] WL[225] WL[224] WL[223] WL[222]
+WL[221] WL[220] WL[219] WL[218] WL[217] WL[216] WL[215] WL[214] WL[213] WL[212]
+WL[211] WL[210] WL[209] WL[208] WL[207] WL[206] WL[205] WL[204] WL[203] WL[202]
+WL[201] WL[200] WL[199] WL[198] WL[197] WL[196] WL[195] WL[194] WL[193] WL[192]
+WL[191] WL[190] WL[189] WL[188] WL[187] WL[186] WL[185] WL[184] WL[183] WL[182]
+WL[181] WL[180] WL[179] WL[178] WL[177] WL[176] WL[175] WL[174] WL[173] WL[172]
+WL[171] WL[170] WL[169] WL[168] WL[167] WL[166] WL[165] WL[164] WL[163] WL[162]
+WL[161] WL[160] WL[159] WL[158] WL[157] WL[156] WL[155] WL[154] WL[153] WL[152]
+WL[151] WL[150] WL[149] WL[148] WL[147] WL[146] WL[145] WL[144] WL[143] WL[142]
+WL[141] WL[140] WL[139] WL[138] WL[137] WL[136] WL[135] WL[134] WL[133] WL[132]
+WL[131] WL[130] WL[129] WL[128] WL[127] WL[126] WL[125] WL[124] WL[123] WL[122]
+WL[121] WL[120] WL[119] WL[118] WL[117] WL[116] WL[115] WL[114] WL[113] WL[112]
+WL[111] WL[110] WL[109] WL[108] WL[107] WL[106] WL[105] WL[104] WL[103] WL[102]
+WL[101] WL[100] WL[99] WL[98] WL[97] WL[96] WL[95] WL[94] WL[93] WL[92]
+WL[91] WL[90] WL[89] WL[88] WL[87] WL[86] WL[85] WL[84] WL[83] WL[82]
+WL[81] WL[80] WL[79] WL[78] WL[77] WL[76] WL[75] WL[74] WL[73] WL[72]
+WL[71] WL[70] WL[69] WL[68] WL[67] WL[66] WL[65] WL[64] WL[63] WL[62]
+WL[61] WL[60] WL[59] WL[58] WL[57] WL[56] WL[55] WL[54] WL[53] WL[52]
+WL[51] WL[50] WL[49] WL[48] WL[47] WL[46] WL[45] WL[44] WL[43] WL[42]
+WL[41] WL[40] WL[39] WL[38] WL[37] WL[36] WL[35] WL[34] WL[33] WL[32]
+WL[31] WL[30] WL[29] WL[28] WL[27] WL[26] WL[25] WL[24] WL[23] WL[22]
+WL[21] WL[20] WL[19] WL[18] WL[17] WL[16] WL[15] WL[14] WL[13] WL[12]
+WL[11] WL[10] WL[9] WL[8] WL[7] WL[6] WL[5] WL[4] WL[3] WL[2]
+WL[1] WL[0]
XIS013EELPSP_0 BL[1] BL[0] BLX[1] BLX[0] VDDC VSS WL[255] WL[254] S013LLLPSP_X256Y8D8_S013EELPSP_bitcell2x2
XIS013EELPSP_1 BL[1] BL[0] BLX[1] BLX[0] VDDC VSS WL[253] WL[252] S013LLLPSP_X256Y8D8_S013EELPSP_bitcell2x2
XIS013EELPSP_2 BL[1] BL[0] BLX[1] BLX[0] VDDC VSS WL[251] WL[250] S013LLLPSP_X256Y8D8_S013EELPSP_bitcell2x2
XIS013EELPSP_3 BL[1] BL[0] BLX[1] BLX[0] VDDC VSS WL[249] WL[248] S013LLLPSP_X256Y8D8_S013EELPSP_bitcell2x2
XIS013EELPSP_4 BL[1] BL[0] BLX[1] BLX[0] VDDC VSS WL[247] WL[246] S013LLLPSP_X256Y8D8_S013EELPSP_bitcell2x2
XIS013EELPSP_5 BL[1] BL[0] BLX[1] BLX[0] VDDC VSS WL[245] WL[244] S013LLLPSP_X256Y8D8_S013EELPSP_bitcell2x2
XIS013EELPSP_6 BL[1] BL[0] BLX[1] BLX[0] VDDC VSS WL[243] WL[242] S013LLLPSP_X256Y8D8_S013EELPSP_bitcell2x2
XIS013EELPSP_7 BL[1] BL[0] BLX[1] BLX[0] VDDC VSS WL[241] WL[240] S013LLLPSP_X256Y8D8_S013EELPSP_bitcell2x2
XIS013EELPSP_8 BL[1] BL[0] BLX[1] BLX[0] VDDC VSS WL[239] WL[238] S013LLLPSP_X256Y8D8_S013EELPSP_bitcell2x2
XIS013EELPSP_9 BL[1] BL[0] BLX[1] BLX[0] VDDC VSS WL[237] WL[236] S013LLLPSP_X256Y8D8_S013EELPSP_bitcell2x2
XIS013EELPSP_10 BL[1] BL[0] BLX[1] BLX[0] VDDC VSS WL[235] WL[234] S013LLLPSP_X256Y8D8_S013EELPSP_bitcell2x2
XIS013EELPSP_11 BL[1] BL[0] BLX[1] BLX[0] VDDC VSS WL[233] WL[232] S013LLLPSP_X256Y8D8_S013EELPSP_bitcell2x2
XIS013EELPSP_12 BL[1] BL[0] BLX[1] BLX[0] VDDC VSS WL[231] WL[230] S013LLLPSP_X256Y8D8_S013EELPSP_bitcell2x2
XIS013EELPSP_13 BL[1] BL[0] BLX[1] BLX[0] VDDC VSS WL[229] WL[228] S013LLLPSP_X256Y8D8_S013EELPSP_bitcell2x2
XIS013EELPSP_14 BL[1] BL[0] BLX[1] BLX[0] VDDC VSS WL[227] WL[226] S013LLLPSP_X256Y8D8_S013EELPSP_bitcell2x2
XIS013EELPSP_15 BL[1] BL[0] BLX[1] BLX[0] VDDC VSS WL[225] WL[224] S013LLLPSP_X256Y8D8_S013EELPSP_bitcell2x2
XIS013EELPSP_16 BL[1] BL[0] BLX[1] BLX[0] VDDC VSS WL[223] WL[222] S013LLLPSP_X256Y8D8_S013EELPSP_bitcell2x2
XIS013EELPSP_17 BL[1] BL[0] BLX[1] BLX[0] VDDC VSS WL[221] WL[220] S013LLLPSP_X256Y8D8_S013EELPSP_bitcell2x2
XIS013EELPSP_18 BL[1] BL[0] BLX[1] BLX[0] VDDC VSS WL[219] WL[218] S013LLLPSP_X256Y8D8_S013EELPSP_bitcell2x2
XIS013EELPSP_19 BL[1] BL[0] BLX[1] BLX[0] VDDC VSS WL[217] WL[216] S013LLLPSP_X256Y8D8_S013EELPSP_bitcell2x2
XIS013EELPSP_20 BL[1] BL[0] BLX[1] BLX[0] VDDC VSS WL[215] WL[214] S013LLLPSP_X256Y8D8_S013EELPSP_bitcell2x2
XIS013EELPSP_21 BL[1] BL[0] BLX[1] BLX[0] VDDC VSS WL[213] WL[212] S013LLLPSP_X256Y8D8_S013EELPSP_bitcell2x2
XIS013EELPSP_22 BL[1] BL[0] BLX[1] BLX[0] VDDC VSS WL[211] WL[210] S013LLLPSP_X256Y8D8_S013EELPSP_bitcell2x2
XIS013EELPSP_23 BL[1] BL[0] BLX[1] BLX[0] VDDC VSS WL[209] WL[208] S013LLLPSP_X256Y8D8_S013EELPSP_bitcell2x2
XIS013EELPSP_24 BL[1] BL[0] BLX[1] BLX[0] VDDC VSS WL[207] WL[206] S013LLLPSP_X256Y8D8_S013EELPSP_bitcell2x2
XIS013EELPSP_25 BL[1] BL[0] BLX[1] BLX[0] VDDC VSS WL[205] WL[204] S013LLLPSP_X256Y8D8_S013EELPSP_bitcell2x2
XIS013EELPSP_26 BL[1] BL[0] BLX[1] BLX[0] VDDC VSS WL[203] WL[202] S013LLLPSP_X256Y8D8_S013EELPSP_bitcell2x2
XIS013EELPSP_27 BL[1] BL[0] BLX[1] BLX[0] VDDC VSS WL[201] WL[200] S013LLLPSP_X256Y8D8_S013EELPSP_bitcell2x2
XIS013EELPSP_28 BL[1] BL[0] BLX[1] BLX[0] VDDC VSS WL[199] WL[198] S013LLLPSP_X256Y8D8_S013EELPSP_bitcell2x2
XIS013EELPSP_29 BL[1] BL[0] BLX[1] BLX[0] VDDC VSS WL[197] WL[196] S013LLLPSP_X256Y8D8_S013EELPSP_bitcell2x2
XIS013EELPSP_30 BL[1] BL[0] BLX[1] BLX[0] VDDC VSS WL[195] WL[194] S013LLLPSP_X256Y8D8_S013EELPSP_bitcell2x2
XIS013EELPSP_31 BL[1] BL[0] BLX[1] BLX[0] VDDC VSS WL[193] WL[192] S013LLLPSP_X256Y8D8_S013EELPSP_bitcell2x2
XIS013EELPSP_32 BL[1] BL[0] BLX[1] BLX[0] VDDC VSS WL[191] WL[190] S013LLLPSP_X256Y8D8_S013EELPSP_bitcell2x2
XIS013EELPSP_33 BL[1] BL[0] BLX[1] BLX[0] VDDC VSS WL[189] WL[188] S013LLLPSP_X256Y8D8_S013EELPSP_bitcell2x2
XIS013EELPSP_34 BL[1] BL[0] BLX[1] BLX[0] VDDC VSS WL[187] WL[186] S013LLLPSP_X256Y8D8_S013EELPSP_bitcell2x2
XIS013EELPSP_35 BL[1] BL[0] BLX[1] BLX[0] VDDC VSS WL[185] WL[184] S013LLLPSP_X256Y8D8_S013EELPSP_bitcell2x2
XIS013EELPSP_36 BL[1] BL[0] BLX[1] BLX[0] VDDC VSS WL[183] WL[182] S013LLLPSP_X256Y8D8_S013EELPSP_bitcell2x2
XIS013EELPSP_37 BL[1] BL[0] BLX[1] BLX[0] VDDC VSS WL[181] WL[180] S013LLLPSP_X256Y8D8_S013EELPSP_bitcell2x2
XIS013EELPSP_38 BL[1] BL[0] BLX[1] BLX[0] VDDC VSS WL[179] WL[178] S013LLLPSP_X256Y8D8_S013EELPSP_bitcell2x2
XIS013EELPSP_39 BL[1] BL[0] BLX[1] BLX[0] VDDC VSS WL[177] WL[176] S013LLLPSP_X256Y8D8_S013EELPSP_bitcell2x2
XIS013EELPSP_40 BL[1] BL[0] BLX[1] BLX[0] VDDC VSS WL[175] WL[174] S013LLLPSP_X256Y8D8_S013EELPSP_bitcell2x2
XIS013EELPSP_41 BL[1] BL[0] BLX[1] BLX[0] VDDC VSS WL[173] WL[172] S013LLLPSP_X256Y8D8_S013EELPSP_bitcell2x2
XIS013EELPSP_42 BL[1] BL[0] BLX[1] BLX[0] VDDC VSS WL[171] WL[170] S013LLLPSP_X256Y8D8_S013EELPSP_bitcell2x2
XIS013EELPSP_43 BL[1] BL[0] BLX[1] BLX[0] VDDC VSS WL[169] WL[168] S013LLLPSP_X256Y8D8_S013EELPSP_bitcell2x2
XIS013EELPSP_44 BL[1] BL[0] BLX[1] BLX[0] VDDC VSS WL[167] WL[166] S013LLLPSP_X256Y8D8_S013EELPSP_bitcell2x2
XIS013EELPSP_45 BL[1] BL[0] BLX[1] BLX[0] VDDC VSS WL[165] WL[164] S013LLLPSP_X256Y8D8_S013EELPSP_bitcell2x2
XIS013EELPSP_46 BL[1] BL[0] BLX[1] BLX[0] VDDC VSS WL[163] WL[162] S013LLLPSP_X256Y8D8_S013EELPSP_bitcell2x2
XIS013EELPSP_47 BL[1] BL[0] BLX[1] BLX[0] VDDC VSS WL[161] WL[160] S013LLLPSP_X256Y8D8_S013EELPSP_bitcell2x2
XIS013EELPSP_48 BL[1] BL[0] BLX[1] BLX[0] VDDC VSS WL[159] WL[158] S013LLLPSP_X256Y8D8_S013EELPSP_bitcell2x2
XIS013EELPSP_49 BL[1] BL[0] BLX[1] BLX[0] VDDC VSS WL[157] WL[156] S013LLLPSP_X256Y8D8_S013EELPSP_bitcell2x2
XIS013EELPSP_50 BL[1] BL[0] BLX[1] BLX[0] VDDC VSS WL[155] WL[154] S013LLLPSP_X256Y8D8_S013EELPSP_bitcell2x2
XIS013EELPSP_51 BL[1] BL[0] BLX[1] BLX[0] VDDC VSS WL[153] WL[152] S013LLLPSP_X256Y8D8_S013EELPSP_bitcell2x2
XIS013EELPSP_52 BL[1] BL[0] BLX[1] BLX[0] VDDC VSS WL[151] WL[150] S013LLLPSP_X256Y8D8_S013EELPSP_bitcell2x2
XIS013EELPSP_53 BL[1] BL[0] BLX[1] BLX[0] VDDC VSS WL[149] WL[148] S013LLLPSP_X256Y8D8_S013EELPSP_bitcell2x2
XIS013EELPSP_54 BL[1] BL[0] BLX[1] BLX[0] VDDC VSS WL[147] WL[146] S013LLLPSP_X256Y8D8_S013EELPSP_bitcell2x2
XIS013EELPSP_55 BL[1] BL[0] BLX[1] BLX[0] VDDC VSS WL[145] WL[144] S013LLLPSP_X256Y8D8_S013EELPSP_bitcell2x2
XIS013EELPSP_56 BL[1] BL[0] BLX[1] BLX[0] VDDC VSS WL[143] WL[142] S013LLLPSP_X256Y8D8_S013EELPSP_bitcell2x2
XIS013EELPSP_57 BL[1] BL[0] BLX[1] BLX[0] VDDC VSS WL[141] WL[140] S013LLLPSP_X256Y8D8_S013EELPSP_bitcell2x2
XIS013EELPSP_58 BL[1] BL[0] BLX[1] BLX[0] VDDC VSS WL[139] WL[138] S013LLLPSP_X256Y8D8_S013EELPSP_bitcell2x2
XIS013EELPSP_59 BL[1] BL[0] BLX[1] BLX[0] VDDC VSS WL[137] WL[136] S013LLLPSP_X256Y8D8_S013EELPSP_bitcell2x2
XIS013EELPSP_60 BL[1] BL[0] BLX[1] BLX[0] VDDC VSS WL[135] WL[134] S013LLLPSP_X256Y8D8_S013EELPSP_bitcell2x2
XIS013EELPSP_61 BL[1] BL[0] BLX[1] BLX[0] VDDC VSS WL[133] WL[132] S013LLLPSP_X256Y8D8_S013EELPSP_bitcell2x2
XIS013EELPSP_62 BL[1] BL[0] BLX[1] BLX[0] VDDC VSS WL[131] WL[130] S013LLLPSP_X256Y8D8_S013EELPSP_bitcell2x2
XIS013EELPSP_63 BL[1] BL[0] BLX[1] BLX[0] VDDC VSS WL[129] WL[128] S013LLLPSP_X256Y8D8_S013EELPSP_bitcell2x2
XIS013EELPSP_64 BL[1] BL[0] BLX[1] BLX[0] VDDC VSS WL[127] WL[126] S013LLLPSP_X256Y8D8_S013EELPSP_bitcell2x2
XIS013EELPSP_65 BL[1] BL[0] BLX[1] BLX[0] VDDC VSS WL[125] WL[124] S013LLLPSP_X256Y8D8_S013EELPSP_bitcell2x2
XIS013EELPSP_66 BL[1] BL[0] BLX[1] BLX[0] VDDC VSS WL[123] WL[122] S013LLLPSP_X256Y8D8_S013EELPSP_bitcell2x2
XIS013EELPSP_67 BL[1] BL[0] BLX[1] BLX[0] VDDC VSS WL[121] WL[120] S013LLLPSP_X256Y8D8_S013EELPSP_bitcell2x2
XIS013EELPSP_68 BL[1] BL[0] BLX[1] BLX[0] VDDC VSS WL[119] WL[118] S013LLLPSP_X256Y8D8_S013EELPSP_bitcell2x2
XIS013EELPSP_69 BL[1] BL[0] BLX[1] BLX[0] VDDC VSS WL[117] WL[116] S013LLLPSP_X256Y8D8_S013EELPSP_bitcell2x2
XIS013EELPSP_70 BL[1] BL[0] BLX[1] BLX[0] VDDC VSS WL[115] WL[114] S013LLLPSP_X256Y8D8_S013EELPSP_bitcell2x2
XIS013EELPSP_71 BL[1] BL[0] BLX[1] BLX[0] VDDC VSS WL[113] WL[112] S013LLLPSP_X256Y8D8_S013EELPSP_bitcell2x2
XIS013EELPSP_72 BL[1] BL[0] BLX[1] BLX[0] VDDC VSS WL[111] WL[110] S013LLLPSP_X256Y8D8_S013EELPSP_bitcell2x2
XIS013EELPSP_73 BL[1] BL[0] BLX[1] BLX[0] VDDC VSS WL[109] WL[108] S013LLLPSP_X256Y8D8_S013EELPSP_bitcell2x2
XIS013EELPSP_74 BL[1] BL[0] BLX[1] BLX[0] VDDC VSS WL[107] WL[106] S013LLLPSP_X256Y8D8_S013EELPSP_bitcell2x2
XIS013EELPSP_75 BL[1] BL[0] BLX[1] BLX[0] VDDC VSS WL[105] WL[104] S013LLLPSP_X256Y8D8_S013EELPSP_bitcell2x2
XIS013EELPSP_76 BL[1] BL[0] BLX[1] BLX[0] VDDC VSS WL[103] WL[102] S013LLLPSP_X256Y8D8_S013EELPSP_bitcell2x2
XIS013EELPSP_77 BL[1] BL[0] BLX[1] BLX[0] VDDC VSS WL[101] WL[100] S013LLLPSP_X256Y8D8_S013EELPSP_bitcell2x2
XIS013EELPSP_78 BL[1] BL[0] BLX[1] BLX[0] VDDC VSS WL[99] WL[98] S013LLLPSP_X256Y8D8_S013EELPSP_bitcell2x2
XIS013EELPSP_79 BL[1] BL[0] BLX[1] BLX[0] VDDC VSS WL[97] WL[96] S013LLLPSP_X256Y8D8_S013EELPSP_bitcell2x2
XIS013EELPSP_80 BL[1] BL[0] BLX[1] BLX[0] VDDC VSS WL[95] WL[94] S013LLLPSP_X256Y8D8_S013EELPSP_bitcell2x2
XIS013EELPSP_81 BL[1] BL[0] BLX[1] BLX[0] VDDC VSS WL[93] WL[92] S013LLLPSP_X256Y8D8_S013EELPSP_bitcell2x2
XIS013EELPSP_82 BL[1] BL[0] BLX[1] BLX[0] VDDC VSS WL[91] WL[90] S013LLLPSP_X256Y8D8_S013EELPSP_bitcell2x2
XIS013EELPSP_83 BL[1] BL[0] BLX[1] BLX[0] VDDC VSS WL[89] WL[88] S013LLLPSP_X256Y8D8_S013EELPSP_bitcell2x2
XIS013EELPSP_84 BL[1] BL[0] BLX[1] BLX[0] VDDC VSS WL[87] WL[86] S013LLLPSP_X256Y8D8_S013EELPSP_bitcell2x2
XIS013EELPSP_85 BL[1] BL[0] BLX[1] BLX[0] VDDC VSS WL[85] WL[84] S013LLLPSP_X256Y8D8_S013EELPSP_bitcell2x2
XIS013EELPSP_86 BL[1] BL[0] BLX[1] BLX[0] VDDC VSS WL[83] WL[82] S013LLLPSP_X256Y8D8_S013EELPSP_bitcell2x2
XIS013EELPSP_87 BL[1] BL[0] BLX[1] BLX[0] VDDC VSS WL[81] WL[80] S013LLLPSP_X256Y8D8_S013EELPSP_bitcell2x2
XIS013EELPSP_88 BL[1] BL[0] BLX[1] BLX[0] VDDC VSS WL[79] WL[78] S013LLLPSP_X256Y8D8_S013EELPSP_bitcell2x2
XIS013EELPSP_89 BL[1] BL[0] BLX[1] BLX[0] VDDC VSS WL[77] WL[76] S013LLLPSP_X256Y8D8_S013EELPSP_bitcell2x2
XIS013EELPSP_90 BL[1] BL[0] BLX[1] BLX[0] VDDC VSS WL[75] WL[74] S013LLLPSP_X256Y8D8_S013EELPSP_bitcell2x2
XIS013EELPSP_91 BL[1] BL[0] BLX[1] BLX[0] VDDC VSS WL[73] WL[72] S013LLLPSP_X256Y8D8_S013EELPSP_bitcell2x2
XIS013EELPSP_92 BL[1] BL[0] BLX[1] BLX[0] VDDC VSS WL[71] WL[70] S013LLLPSP_X256Y8D8_S013EELPSP_bitcell2x2
XIS013EELPSP_93 BL[1] BL[0] BLX[1] BLX[0] VDDC VSS WL[69] WL[68] S013LLLPSP_X256Y8D8_S013EELPSP_bitcell2x2
XIS013EELPSP_94 BL[1] BL[0] BLX[1] BLX[0] VDDC VSS WL[67] WL[66] S013LLLPSP_X256Y8D8_S013EELPSP_bitcell2x2
XIS013EELPSP_95 BL[1] BL[0] BLX[1] BLX[0] VDDC VSS WL[65] WL[64] S013LLLPSP_X256Y8D8_S013EELPSP_bitcell2x2
XIS013EELPSP_96 BL[1] BL[0] BLX[1] BLX[0] VDDC VSS WL[63] WL[62] S013LLLPSP_X256Y8D8_S013EELPSP_bitcell2x2
XIS013EELPSP_97 BL[1] BL[0] BLX[1] BLX[0] VDDC VSS WL[61] WL[60] S013LLLPSP_X256Y8D8_S013EELPSP_bitcell2x2
XIS013EELPSP_98 BL[1] BL[0] BLX[1] BLX[0] VDDC VSS WL[59] WL[58] S013LLLPSP_X256Y8D8_S013EELPSP_bitcell2x2
XIS013EELPSP_99 BL[1] BL[0] BLX[1] BLX[0] VDDC VSS WL[57] WL[56] S013LLLPSP_X256Y8D8_S013EELPSP_bitcell2x2
XIS013EELPSP_100 BL[1] BL[0] BLX[1] BLX[0] VDDC VSS WL[55] WL[54] S013LLLPSP_X256Y8D8_S013EELPSP_bitcell2x2
XIS013EELPSP_101 BL[1] BL[0] BLX[1] BLX[0] VDDC VSS WL[53] WL[52] S013LLLPSP_X256Y8D8_S013EELPSP_bitcell2x2
XIS013EELPSP_102 BL[1] BL[0] BLX[1] BLX[0] VDDC VSS WL[51] WL[50] S013LLLPSP_X256Y8D8_S013EELPSP_bitcell2x2
XIS013EELPSP_103 BL[1] BL[0] BLX[1] BLX[0] VDDC VSS WL[49] WL[48] S013LLLPSP_X256Y8D8_S013EELPSP_bitcell2x2
XIS013EELPSP_104 BL[1] BL[0] BLX[1] BLX[0] VDDC VSS WL[47] WL[46] S013LLLPSP_X256Y8D8_S013EELPSP_bitcell2x2
XIS013EELPSP_105 BL[1] BL[0] BLX[1] BLX[0] VDDC VSS WL[45] WL[44] S013LLLPSP_X256Y8D8_S013EELPSP_bitcell2x2
XIS013EELPSP_106 BL[1] BL[0] BLX[1] BLX[0] VDDC VSS WL[43] WL[42] S013LLLPSP_X256Y8D8_S013EELPSP_bitcell2x2
XIS013EELPSP_107 BL[1] BL[0] BLX[1] BLX[0] VDDC VSS WL[41] WL[40] S013LLLPSP_X256Y8D8_S013EELPSP_bitcell2x2
XIS013EELPSP_108 BL[1] BL[0] BLX[1] BLX[0] VDDC VSS WL[39] WL[38] S013LLLPSP_X256Y8D8_S013EELPSP_bitcell2x2
XIS013EELPSP_109 BL[1] BL[0] BLX[1] BLX[0] VDDC VSS WL[37] WL[36] S013LLLPSP_X256Y8D8_S013EELPSP_bitcell2x2
XIS013EELPSP_110 BL[1] BL[0] BLX[1] BLX[0] VDDC VSS WL[35] WL[34] S013LLLPSP_X256Y8D8_S013EELPSP_bitcell2x2
XIS013EELPSP_111 BL[1] BL[0] BLX[1] BLX[0] VDDC VSS WL[33] WL[32] S013LLLPSP_X256Y8D8_S013EELPSP_bitcell2x2
XIS013EELPSP_112 BL[1] BL[0] BLX[1] BLX[0] VDDC VSS WL[31] WL[30] S013LLLPSP_X256Y8D8_S013EELPSP_bitcell2x2
XIS013EELPSP_113 BL[1] BL[0] BLX[1] BLX[0] VDDC VSS WL[29] WL[28] S013LLLPSP_X256Y8D8_S013EELPSP_bitcell2x2
XIS013EELPSP_114 BL[1] BL[0] BLX[1] BLX[0] VDDC VSS WL[27] WL[26] S013LLLPSP_X256Y8D8_S013EELPSP_bitcell2x2
XIS013EELPSP_115 BL[1] BL[0] BLX[1] BLX[0] VDDC VSS WL[25] WL[24] S013LLLPSP_X256Y8D8_S013EELPSP_bitcell2x2
XIS013EELPSP_116 BL[1] BL[0] BLX[1] BLX[0] VDDC VSS WL[23] WL[22] S013LLLPSP_X256Y8D8_S013EELPSP_bitcell2x2
XIS013EELPSP_117 BL[1] BL[0] BLX[1] BLX[0] VDDC VSS WL[21] WL[20] S013LLLPSP_X256Y8D8_S013EELPSP_bitcell2x2
XIS013EELPSP_118 BL[1] BL[0] BLX[1] BLX[0] VDDC VSS WL[19] WL[18] S013LLLPSP_X256Y8D8_S013EELPSP_bitcell2x2
XIS013EELPSP_119 BL[1] BL[0] BLX[1] BLX[0] VDDC VSS WL[17] WL[16] S013LLLPSP_X256Y8D8_S013EELPSP_bitcell2x2
XIS013EELPSP_120 BL[1] BL[0] BLX[1] BLX[0] VDDC VSS WL[15] WL[14] S013LLLPSP_X256Y8D8_S013EELPSP_bitcell2x2
XIS013EELPSP_121 BL[1] BL[0] BLX[1] BLX[0] VDDC VSS WL[13] WL[12] S013LLLPSP_X256Y8D8_S013EELPSP_bitcell2x2
XIS013EELPSP_122 BL[1] BL[0] BLX[1] BLX[0] VDDC VSS WL[11] WL[10] S013LLLPSP_X256Y8D8_S013EELPSP_bitcell2x2
XIS013EELPSP_123 BL[1] BL[0] BLX[1] BLX[0] VDDC VSS WL[9] WL[8] S013LLLPSP_X256Y8D8_S013EELPSP_bitcell2x2
XIS013EELPSP_124 BL[1] BL[0] BLX[1] BLX[0] VDDC VSS WL[7] WL[6] S013LLLPSP_X256Y8D8_S013EELPSP_bitcell2x2
XIS013EELPSP_125 BL[1] BL[0] BLX[1] BLX[0] VDDC VSS WL[5] WL[4] S013LLLPSP_X256Y8D8_S013EELPSP_bitcell2x2
XIS013EELPSP_126 BL[1] BL[0] BLX[1] BLX[0] VDDC VSS WL[3] WL[2] S013LLLPSP_X256Y8D8_S013EELPSP_bitcell2x2
XIS013EELPSP_127 BL[1] BL[0] BLX[1] BLX[0] VDDC VSS WL[1] WL[0] S013LLLPSP_X256Y8D8_S013EELPSP_bitcell2x2
.ENDS

************************************************************************
* Library Name: SMIC_MEMORY
* Cell Name:    S013LLLPSP_X256Y8D8_S013EELPSP_bitcellx4_b
* View Name:    schematic
************************************************************************

.SUBCKT S013LLLPSP_X256Y8D8_S013EELPSP_bitcellx4_b VDDC VSS WL[3] WL[2] WL[1] WL[0]